Respostas/22_23/SMT/Caso_6_30_trechos.dss
ClearAll

New Circuit.Fonte phases=3 basekv=12.47 bus1=A.1.2.3 bus2=A.4.4.4 model=ideal

! 556,550 26/7
New Wiredata.Phase GMR=0.0303 DIAM=0.927 RAC=0.1859
~ NormAmps=730
~ Runits=mi radunits=in gmrunits=ft

! 4/0 ACSR
New Wiredata.Neutral GMR=0.00814 DIAM=0.563 RAC=0.592
~ NormAmps=340
~ Runits=mi radunits=in gmrunits=ft

New Linegeometry.PoleExample nconds=4 nphases=3 reduce=no
~ cond=1 Wire=Phase x= -4 h=29 units=ft
~ cond=2 Wire=Phase x= 3 h=29 units=ft
~ cond=3 Wire=Phase x= -1.5 h=29 units=ft
~ cond=4 Wire=Neutral x= 0 h=25 units=ft

New Line.A phases=4 bus1=A.1.2.3.4 bus2=A_1.1.2.3.4 Geometry=PoleExample Length=0.1 units=mi EarthModel=Carson
New Line.A_1 phases=4 bus1=A_1.1.2.3.4 bus2=A_2.1.2.3.4 Geometry=PoleExample Length=0.1 units=mi EarthModel=Carson
New Line.A_2 phases=4 bus1=A_2.1.2.3.4 bus2=A_3.1.2.3.4 Geometry=PoleExample Length=0.1 units=mi EarthModel=Carson
New Line.A_3 phases=4 bus1=A_3.1.2.3.4 bus2=A_4.1.2.3.4 Geometry=PoleExample Length=0.1 units=mi EarthModel=Carson
New Line.A_4 phases=4 bus1=A_4.1.2.3.4 bus2=A_5.1.2.3.4 Geometry=PoleExample Length=0.1 units=mi EarthModel=Carson
New Line.A_5 phases=4 bus1=A_5.1.2.3.4 bus2=A_6.1.2.3.4 Geometry=PoleExample Length=0.1 units=mi EarthModel=Carson
New Line.A_6 phases=4 bus1=A_6.1.2.3.4 bus2=A_7.1.2.3.4 Geometry=PoleExample Length=0.1 units=mi EarthModel=Carson
New Line.A_7 phases=4 bus1=A_7.1.2.3.4 bus2=A_8.1.2.3.4 Geometry=PoleExample Length=0.1 units=mi EarthModel=Carson
New Line.A_8 phases=4 bus1=A_8.1.2.3.4 bus2=A_9.1.2.3.4 Geometry=PoleExample Length=0.1 units=mi EarthModel=Carson
New Line.A_9 phases=4 bus1=A_9.1.2.3.4 bus2=A_10.1.2.3.4 Geometry=PoleExample Length=0.1 units=mi EarthModel=Carson
New Line.A_10 phases=4 bus1=A_10.1.2.3.4 bus2=A_11.1.2.3.4 Geometry=PoleExample Length=0.1 units=mi EarthModel=Carson
New Line.A_11 phases=4 bus1=A_11.1.2.3.4 bus2=A_12.1.2.3.4 Geometry=PoleExample Length=0.1 units=mi EarthModel=Carson
New Line.A_12 phases=4 bus1=A_12.1.2.3.4 bus2=A_13.1.2.3.4 Geometry=PoleExample Length=0.1 units=mi EarthModel=Carson
New Line.A_13 phases=4 bus1=A_13.1.2.3.4 bus2=A_14.1.2.3.4 Geometry=PoleExample Length=0.1 units=mi EarthModel=Carson
New Line.A_14 phases=4 bus1=A_14.1.2.3.4 bus2=A_15.1.2.3.4 Geometry=PoleExample Length=0.1 units=mi EarthModel=Carson
New Line.A_15 phases=4 bus1=A_15.1.2.3.4 bus2=A_16.1.2.3.4 Geometry=PoleExample Length=0.1 units=mi EarthModel=Carson
New Line.A_16 phases=4 bus1=A_16.1.2.3.4 bus2=A_17.1.2.3.4 Geometry=PoleExample Length=0.1 units=mi EarthModel=Carson
New Line.A_17 phases=4 bus1=A_17.1.2.3.4 bus2=A_18.1.2.3.4 Geometry=PoleExample Length=0.1 units=mi EarthModel=Carson
New Line.A_18 phases=4 bus1=A_18.1.2.3.4 bus2=A_19.1.2.3.4 Geometry=PoleExample Length=0.1 units=mi EarthModel=Carson
New Line.A_19 phases=4 bus1=A_19.1.2.3.4 bus2=A_20.1.2.3.4 Geometry=PoleExample Length=0.1 units=mi EarthModel=Carson
New Line.A_20 phases=4 bus1=A_20.1.2.3.4 bus2=A_21.1.2.3.4 Geometry=PoleExample Length=0.1 units=mi EarthModel=Carson
New Line.A_21 phases=4 bus1=A_21.1.2.3.4 bus2=A_22.1.2.3.4 Geometry=PoleExample Length=0.1 units=mi EarthModel=Carson
New Line.A_22 phases=4 bus1=A_22.1.2.3.4 bus2=A_23.1.2.3.4 Geometry=PoleExample Length=0.1 units=mi EarthModel=Carson
New Line.A_23 phases=4 bus1=A_23.1.2.3.4 bus2=A_24.1.2.3.4 Geometry=PoleExample Length=0.1 units=mi EarthModel=Carson
New Line.A_24 phases=4 bus1=A_24.1.2.3.4 bus2=A_25.1.2.3.4 Geometry=PoleExample Length=0.1 units=mi EarthModel=Carson
New Line.A_25 phases=4 bus1=A_25.1.2.3.4 bus2=A_26.1.2.3.4 Geometry=PoleExample Length=0.1 units=mi EarthModel=Carson
New Line.A_26 phases=4 bus1=A_26.1.2.3.4 bus2=A_27.1.2.3.4 Geometry=PoleExample Length=0.1 units=mi EarthModel=Carson
New Line.A_27 phases=4 bus1=A_27.1.2.3.4 bus2=A_28.1.2.3.4 Geometry=PoleExample Length=0.1 units=mi EarthModel=Carson
New Line.A_28 phases=4 bus1=A_28.1.2.3.4 bus2=A_29.1.2.3.4 Geometry=PoleExample Length=0.1 units=mi EarthModel=Carson
New Line.A_29 phases=4 bus1=A_29.1.2.3.4 bus2=B.1.2.3.4 Geometry=PoleExample Length=0.1 units=mi EarthModel=Carson
New Reactor.A phases=1 bus1=A.4 bus2=A.0 r=2 x=0
New Reactor.A_1 phases=1 bus1=A_1.4 bus2=A_1.0 r=15 x=0
New Reactor.A_2 phases=1 bus1=A_2.4 bus2=A_2.0 r=15 x=0
New Reactor.A_3 phases=1 bus1=A_3.4 bus2=A_3.0 r=15 x=0
New Reactor.A_4 phases=1 bus1=A_4.4 bus2=A_4.0 r=15 x=0
New Reactor.A_5 phases=1 bus1=A_5.4 bus2=A_5.0 r=15 x=0
New Reactor.A_6 phases=1 bus1=A_6.4 bus2=A_6.0 r=15 x=0
New Reactor.A_7 phases=1 bus1=A_7.4 bus2=A_7.0 r=15 x=0
New Reactor.A_8 phases=1 bus1=A_8.4 bus2=A_8.0 r=15 x=0
New Reactor.A_9 phases=1 bus1=A_9.4 bus2=A_9.0 r=15 x=0
New Reactor.A_10 phases=1 bus1=A_10.4 bus2=A_10.0 r=15 x=0
New Reactor.A_11 phases=1 bus1=A_11.4 bus2=A_11.0 r=15 x=0
New Reactor.A_12 phases=1 bus1=A_12.4 bus2=A_12.0 r=15 x=0
New Reactor.A_13 phases=1 bus1=A_13.4 bus2=A_13.0 r=15 x=0
New Reactor.A_14 phases=1 bus1=A_14.4 bus2=A_14.0 r=15 x=0
New Reactor.A_15 phases=1 bus1=A_15.4 bus2=A_15.0 r=15 x=0
New Reactor.A_16 phases=1 bus1=A_16.4 bus2=A_16.0 r=15 x=0
New Reactor.A_17 phases=1 bus1=A_17.4 bus2=A_17.0 r=15 x=0
New Reactor.A_18 phases=1 bus1=A_18.4 bus2=A_18.0 r=15 x=0
New Reactor.A_19 phases=1 bus1=A_19.4 bus2=A_19.0 r=15 x=0
New Reactor.A_20 phases=1 bus1=A_20.4 bus2=A_20.0 r=15 x=0
New Reactor.A_21 phases=1 bus1=A_21.4 bus2=A_21.0 r=15 x=0
New Reactor.A_22 phases=1 bus1=A_22.4 bus2=A_22.0 r=15 x=0
New Reactor.A_23 phases=1 bus1=A_23.4 bus2=A_23.0 r=15 x=0
New Reactor.A_24 phases=1 bus1=A_24.4 bus2=A_24.0 r=15 x=0
New Reactor.A_25 phases=1 bus1=A_25.4 bus2=A_25.0 r=15 x=0
New Reactor.A_26 phases=1 bus1=A_26.4 bus2=A_26.0 r=15 x=0
New Reactor.A_27 phases=1 bus1=A_27.4 bus2=A_27.0 r=15 x=0
New Reactor.A_28 phases=1 bus1=A_28.4 bus2=A_28.0 r=15 x=0
New Reactor.A_29 phases=1 bus1=A_29.4 bus2=A_29.0 r=15 x=0

New Reactor.B phases=1 bus1=B.4 bus2=B.0 r=15 x=0

New Isource.Ia phases=1 amps=202.8 angle=-32.0 bus1=B.1 bus2=B.4
New Isource.Ib phases=1 amps=137.93 angle=-139.1 bus1=B.2 bus2=B.4
New Isource.Ic phases=1 amps=255.88 angle=81.7 bus1=B.3 bus2=B.4

set voltagebases=[12.47]
calcvoltagebases

Solve
show losses